<?xml version="1.0" encoding="UTF-8"?>

<!-- generated on 06/22/23 19:50:31 by Eclipse SUMO polyconvert Version 1.8.0
<configuration xmlns:xsi="http://www.w3.org/2001/XMLSchema-instance" xsi:noNamespaceSchemaLocation="http://sumo.dlr.de/xsd/polyconvertConfiguration.xsd">

    <input>
        <net-file value="map.net.xml"/>
        <osm-files value="map.osm"/>
        <type-file value="typemap.xml"/>
    </input>

    <output>
        <output-file value="map.poly.xml"/>
    </output>

    <processing>
        <poi-layer-offset value="5"/>
    </processing>

</configuration>
-->

<additional xmlns:xsi="http://www.w3.org/2001/XMLSchema-instance" xsi:noNamespaceSchemaLocation="http://sumo.dlr.de/xsd/additional_file.xsd">
    <location netOffset="-301074.12,-3779303.30" convBoundary="-4680.30,-0.00,18935.52,12779.68" origBoundary="108.791241,34.136263,109.046641,34.250291" projParameter="+proj=utm +zone=49 +ellps=WGS84 +datum=WGS84 +units=m +no_defs"/>

    <poly id="1014212871" type="building" color="255,230,230" fill="1" layer="-1.00" shape="2833.176998,4051.338598 2848.200063,4027.457679 2704.163575,3917.908353 2253.731857,3638.022457 2227.928965,3675.611396 2209.330274,3696.061916 2186.734750,3712.823561 2163.913323,3725.839603 2142.344585,3731.728142 2121.161844,3735.788933 2129.082512,4069.985093 2222.550367,4067.695301 2255.073327,4070.997997 2572.660257,4059.219429 2605.192724,4056.364958 2833.176998,4051.338598"/>
    <poly id="1014488832" type="residential" color="235,235,227" fill="1" layer="-3.00" shape="1818.054493,3410.796465 1816.937564,3346.097769 1837.675162,3321.207671 1820.538612,3307.142388 1810.468468,3307.220405 1810.038964,3296.854789 1634.875514,3299.275805 1636.811366,3413.478230 1818.054493,3410.796465"/>
    <poly id="1014488852" type="building" color="255,230,230" fill="1" layer="-1.00" shape="1789.910457,3642.335901 1789.411762,3629.552833 1757.498438,3630.777055 1757.680060,3635.477891 1739.276728,3636.185758 1739.665263,3646.352514 1719.916463,3647.110840 1720.496811,3662.022604 1739.591274,3661.289101 1739.189563,3650.933991 1758.505300,3650.195886 1758.255305,3643.554708 1789.910457,3642.335901"/>
    <poly id="1014488855" type="building" color="255,230,230" fill="1" layer="-1.00" shape="1798.773895,3618.160746 1798.399662,3602.956172 1738.600620,3604.399194 1738.975416,3619.625953 1798.773895,3618.160746"/>
    <poly id="1014488872" type="building" color="255,230,230" fill="1" layer="-1.00" shape="1818.636528,3740.686298 1817.779511,3724.448836 1780.753028,3725.480649 1781.097581,3741.906395 1818.636528,3740.686298"/>
    <poly id="1014488873" type="building" color="255,230,230" fill="1" layer="-1.00" shape="1814.807340,3702.785475 1814.213686,3685.033454 1775.771769,3686.305783 1776.356277,3704.057998 1814.807340,3702.785475"/>
    <poly id="1014488874" type="building" color="255,230,230" fill="1" layer="-1.00" shape="1863.195220,3698.175723 1862.760471,3680.520236 1822.117718,3681.516740 1822.552776,3699.183320 1863.195220,3698.175723"/>
    <poly id="1014488876" type="building" color="255,230,230" fill="1" layer="-1.00" shape="1812.027797,3397.851930 1811.709788,3383.567138 1735.792713,3385.270434 1736.110604,3399.544138 1812.027797,3397.851930"/>
    <poly id="1014488880" type="building" color="255,230,230" fill="1" layer="-1.00" shape="1806.364779,3363.107513 1805.986863,3347.725488 1756.354687,3348.943989 1756.732917,3364.337107 1806.364779,3363.107513"/>
    <poly id="1014488885" type="building" color="255,230,230" fill="1" layer="-1.00" shape="1771.147612,3327.784585 1770.832658,3314.087808 1746.098753,3314.662101 1746.422962,3328.358685 1771.147612,3327.784585"/>
    <poly id="1014488886" type="building" color="255,230,230" fill="1" layer="-1.00" shape="1801.899038,3326.962103 1801.665009,3313.163769 1777.050171,3313.258361 1777.468240,3327.474481 1801.899038,3326.962103"/>
    <poly id="1014488887" type="residential" color="235,235,227" fill="1" layer="-3.00" shape="1769.637387,3296.237453 1768.516610,3264.349278 1722.745289,3215.733117 1632.754523,3216.678309 1635.042904,3298.462293 1769.637387,3296.237453"/>
    <poly id="1014488889" type="building" color="255,230,230" fill="1" layer="-1.00" shape="1767.076082,3284.496280 1766.658552,3270.746176 1735.153287,3271.695532 1735.571095,3285.456728 1767.076082,3284.496280"/>
    <poly id="1015248027" type="building" color="255,230,230" fill="1" layer="-1.00" shape="1793.224743,3091.013171 1758.199632,3032.351630 1734.565365,3044.930747 1768.129297,3104.721343 1793.224743,3091.013171"/>
    <poly id="1015385209" type="unknown" color="51,128,255" fill="1" layer="-1.00" shape="3133.433683,3973.998558 3284.900458,3968.092332 3271.309175,3553.116933 3285.511485,3550.857353 3281.495737,3329.125983 3107.654234,3335.109324 3111.910108,3439.342936 2864.842016,3444.992617 2867.682999,3487.896193 3113.545671,3481.106570 3133.433683,3973.998558"/>
    <poly id="1015411622" type="amenity" color="237,199,199" fill="1" layer="-1.00" shape="3083.886490,3674.180442 3038.685409,3685.230667 3036.385344,3622.665210 3081.942406,3620.717196 3083.886490,3674.180442"/>
    <poly id="1015411628" type="building" color="255,230,230" fill="1" layer="-1.00" shape="2571.096282,3679.786705 2597.204073,3649.227162 2536.533919,3598.799355 2511.569528,3629.346268 2571.096282,3679.786705"/>
    <poly id="1015411629" type="amenity" color="237,199,199" fill="1" layer="-1.00" shape="2640.473247,3738.221547 2640.062328,3718.546186 2654.560406,3718.099161 2653.651299,3687.815531 2588.965552,3690.165226 2640.473247,3738.221547"/>
    <poly id="1015411629#1" type="building" color="255,230,230" fill="1" layer="-1.00" shape="2640.473247,3738.221547 2640.062328,3718.546186 2654.560406,3718.099161 2653.651299,3687.815531 2588.965552,3690.165226 2640.473247,3738.221547"/>
    <poly id="1015411630" type="building" color="255,230,230" fill="1" layer="-1.00" shape="2853.374313,3732.634647 2853.311120,3718.111590 2802.618009,3719.646419 2803.033405,3733.807066 2853.374313,3732.634647"/>
    <poly id="1015411631" type="building" color="255,230,230" fill="1" layer="-1.00" shape="3085.061602,3709.329518 3084.626809,3695.102717 3036.274719,3696.565305 3036.709585,3710.792107 3085.061602,3709.329518"/>
    <poly id="1015411632" type="amenity" color="237,199,199" fill="1" layer="-1.00" shape="2372.288031,3611.375678 2394.278574,3586.826813 2307.631247,3512.854578 2287.302966,3536.181617 2372.288031,3611.375678"/>
    <poly id="1015411632#1" type="building" color="255,230,230" fill="1" layer="-1.00" shape="2372.288031,3611.375678 2394.278574,3586.826813 2307.631247,3512.854578 2287.302966,3536.181617 2372.288031,3611.375678"/>
    <poly id="1015411633" type="building" color="255,230,230" fill="1" layer="-1.00" shape="3015.629396,3712.263405 3015.553740,3700.669906 2963.406454,3701.024735 2963.482405,3712.629327 3015.629396,3712.263405"/>
    <poly id="1015411634" type="building" color="255,230,230" fill="1" layer="-1.00" shape="2932.416439,3726.159313 2932.029456,3713.351765 2881.963209,3714.873091 2882.350260,3727.680640 2932.416439,3726.159313"/>
    <poly id="1015411636" type="amenity" color="237,199,199" fill="1" layer="-1.00" shape="3287.699823,3557.624588 3355.981361,3551.199382 3347.123304,3473.879977 3285.284437,3476.587181 3287.699823,3557.624588"/>
    <poly id="1015411637" type="leisure" color="207,245,201" fill="1" layer="-2.00" shape="3288.297721,3512.352611 3341.467349,3510.114293 3339.708684,3480.558557 3286.969178,3482.643676 3288.297721,3512.352611"/>
    <poly id="1015411638" type="amenity" color="237,199,199" fill="1" layer="-1.00" shape="3225.283230,3604.316699 3224.098697,3567.803065 3206.472008,3568.602834 3207.370825,3605.122421 3225.283230,3604.316699"/>
    <poly id="1015411639" type="residential" color="235,235,227" fill="1" layer="-3.00" shape="3348.471737,3471.310995 3344.645321,3409.753802 3286.303903,3410.801506 3287.780144,3473.750203 3348.471737,3471.310995"/>
    <poly id="1015411640" type="building" color="255,230,230" fill="1" layer="-1.00" shape="3341.504824,3466.263160 3341.290617,3454.639285 3334.486783,3454.769770 3334.346434,3447.138823 3315.962860,3447.477006 3316.102530,3455.074680 3311.787819,3455.153380 3311.993305,3466.799629 3341.504824,3466.263160"/>
    <poly id="1015411641" type="building" color="255,230,230" fill="1" layer="-1.00" shape="3319.576813,3435.884420 3319.362582,3424.260545 3312.558494,3424.379953 3312.418129,3416.749006 3294.034493,3417.087229 3294.174410,3424.695994 3289.859685,3424.774704 3290.065195,3436.420953 3319.576813,3435.884420"/>
    <poly id="1015411642" type="building" color="255,230,230" fill="1" layer="-1.00" shape="2763.117555,3662.672836 2762.963785,3649.560827 2715.542416,3650.117961 2715.696483,3663.241063 2763.117555,3662.672836"/>
    <poly id="1015411643" type="building" color="255,230,230" fill="1" layer="-1.00" shape="2845.585102,3665.190566 2845.369875,3654.432151 2796.592271,3655.405525 2796.807785,3666.175033 2845.585102,3665.190566"/>
    <poly id="1015411644" type="building" color="255,230,230" fill="1" layer="-1.00" shape="2927.545558,3665.067702 2927.284663,3652.557111 2875.202608,3653.843096 2875.666386,3666.349457 2927.545558,3665.067702"/>
    <poly id="1015411645" type="building" color="255,230,230" fill="1" layer="-1.00" shape="3008.263513,3661.531764 3007.938772,3650.820023 2954.459863,3652.345505 2954.786515,3663.145975 3008.263513,3661.531764"/>
    <poly id="1015411646" type="building" color="255,230,230" fill="1" layer="-1.00" shape="3080.782281,3605.762094 3080.261542,3591.836671 3031.586001,3592.851062 3032.355721,3606.771298 3080.782281,3605.762094"/>
    <poly id="1015411647" type="building" color="255,230,230" fill="1" layer="-1.00" shape="3000.767383,3611.191193 3000.484339,3600.267764 2951.362649,3601.558172 2951.655201,3612.492501 3000.767383,3611.191193"/>
    <poly id="1015411648" type="building" color="255,230,230" fill="1" layer="-1.00" shape="2928.537392,3616.658356 2928.019665,3602.888204 2879.767125,3604.726746 2880.293680,3618.474524 2928.537392,3616.658356"/>
    <poly id="1015411649" type="building" color="255,230,230" fill="1" layer="-1.00" shape="2846.041531,3613.241705 2845.808456,3601.185457 2792.973353,3602.199098 2793.206727,3614.266439 2846.041531,3613.241705"/>
    <poly id="1015411650" type="building" color="255,230,230" fill="1" layer="-1.00" shape="2766.482520,3610.463512 2766.294471,3597.918105 2716.119412,3598.676936 2716.307759,3611.233436 2766.482520,3610.463512"/>
    <poly id="1015411651" type="building" color="255,230,230" fill="1" layer="-1.00" shape="2761.129357,3557.248900 2760.988327,3544.746895 2714.467377,3545.606985 2714.853023,3558.336898 2761.129357,3557.248900"/>
    <poly id="1015411652" type="building" color="255,230,230" fill="1" layer="-1.00" shape="2851.157350,3554.305168 2850.894157,3543.015158 2802.588917,3544.111759 2802.852400,3555.412861 2851.157350,3554.305168"/>
    <poly id="1015411653" type="building" color="255,230,230" fill="1" layer="-1.00" shape="2926.725315,3555.414200 2926.406371,3543.215503 2878.409306,3544.493916 2878.728543,3556.703704 2926.725315,3555.414200"/>
    <poly id="1015411654" type="building" color="255,230,230" fill="1" layer="-1.00" shape="3008.507709,3553.342962 3008.206182,3541.532258 2959.369048,3542.772289 2959.670867,3554.594084 3008.507709,3553.342962"/>
    <poly id="1015411655" type="building" color="255,230,230" fill="1" layer="-1.00" shape="3078.554103,3557.697311 3078.339206,3543.843186 3033.438310,3544.545888 3033.653505,3558.411106 3078.554103,3557.697311"/>
    <poly id="1015411656" type="building" color="255,230,230" fill="1" layer="-1.00" shape="3077.230740,3509.236421 3076.961045,3496.293291 3031.972356,3497.219729 3032.242575,3510.185043 3077.230740,3509.236421"/>
    <poly id="1015411657" type="building" color="255,230,230" fill="1" layer="-1.00" shape="3003.091611,3510.759359 3002.797710,3499.314657 2953.886835,3500.567334 2954.190477,3512.034027 3003.091611,3510.759359"/>
    <poly id="1015411658" type="building" color="255,230,230" fill="1" layer="-1.00" shape="2927.191779,3514.094920 2927.005245,3500.284576 2877.246713,3502.021351 2877.938279,3515.721303 2927.191779,3514.094920"/>
    <poly id="1015411659" type="building" color="255,230,230" fill="1" layer="-1.00" shape="2845.583552,3517.017584 2845.200935,3505.308426 2797.458357,3506.859324 2797.841265,3518.579574 2845.583552,3517.017584"/>
    <poly id="1015411660" type="building" color="255,230,230" fill="1" layer="-1.00" shape="2760.954407,3518.816758 2760.548154,3506.863983 2712.844066,3508.492178 2713.259830,3520.455853 2760.954407,3518.816758"/>
    <poly id="1015411663" type="residential" color="235,235,227" fill="1" layer="-3.00" shape="2488.211566,3566.854638 2458.507938,3602.316328 2439.103352,3586.011681 2435.207009,3501.543073 2487.678596,3500.313141 2488.211566,3566.854638"/>
    <poly id="1015411664" type="building" color="255,230,230" fill="1" layer="-1.00" shape="2481.319268,3564.957061 2480.834680,3546.625823 2444.073787,3547.593947 2444.558447,3565.925186 2481.319268,3564.957061"/>
    <poly id="1015411665" type="building" color="255,230,230" fill="1" layer="-1.00" shape="2484.905375,3526.046792 2484.444317,3509.723404 2439.361573,3511.009713 2439.822246,3527.310920 2484.905375,3526.046792"/>
    <poly id="1015411666" type="residential" color="235,235,227" fill="1" layer="-3.00" shape="2706.809386,3668.719290 2704.280549,3496.343532 2595.204783,3498.765537 2568.967614,3536.839608 2533.593915,3579.920253 2637.328911,3669.803964 2706.809386,3668.719290"/>
    <poly id="1015411667" type="building" color="255,230,230" fill="1" layer="-1.00" shape="2701.434886,3659.999249 2701.148045,3644.493323 2638.004887,3645.645397 2638.292064,3661.162416 2701.434886,3659.999249"/>
    <poly id="1015411668" type="building" color="255,230,230" fill="1" layer="-1.00" shape="2701.605878,3617.387846 2701.391432,3604.465729 2645.981237,3605.389714 2646.195528,3618.300742 2701.605878,3617.387846"/>
    <poly id="1015411669" type="building" color="255,230,230" fill="1" layer="-1.00" shape="2700.296616,3570.579855 2700.080611,3555.815870 2638.794906,3556.729396 2639.020458,3571.504282 2700.296616,3570.579855"/>
    <poly id="1015411670" type="building" color="255,230,230" fill="1" layer="-1.00" shape="2698.864823,3524.528938 2698.453198,3507.904946 2637.732594,3509.394738 2638.144789,3526.040914 2698.864823,3524.528938"/>
    <poly id="1015411671" type="building" color="255,230,230" fill="1" layer="-1.00" shape="2616.784163,3540.600880 2623.392827,3532.451689 2597.306470,3511.515089 2590.707029,3519.664105 2616.784163,3540.600880"/>
    <poly id="1015411672" type="building" color="255,230,230" fill="1" layer="-1.00" shape="2589.326103,3575.416043 2598.318930,3564.842528 2575.317654,3545.450439 2566.324832,3556.023976 2589.326103,3575.416043"/>
    <poly id="1015411673" type="building" color="255,230,230" fill="1" layer="-1.00" shape="2570.936672,3594.008410 2577.544330,3585.814819 2552.923260,3566.145941 2546.315607,3574.339550 2570.936672,3594.008410"/>
    <poly id="1015411674" type="building" color="255,230,230" fill="1" layer="-1.00" shape="2623.602029,3643.150066 2633.140075,3632.187936 2583.512348,3589.385046 2573.965090,3600.347419 2623.602029,3643.150066"/>
    <poly id="1015411675" type="leisure" color="207,245,201" fill="1" layer="-2.00" shape="2472.940439,3061.660185 2539.833527,3061.449736 2539.562238,2955.745802 2471.913377,2956.460211 2472.940439,3061.660185"/>
    <poly id="1015411675#1" type="sport" color="79,230,125" fill="1" layer="-2.00" shape="2472.940439,3061.660185 2539.833527,3061.449736 2539.562238,2955.745802 2471.913377,2956.460211 2472.940439,3061.660185"/>
    <poly id="1015411676" type="leisure" color="207,245,201" fill="1" layer="-2.00" shape="2354.475712,3127.870932 2434.340470,3125.646419 2434.916069,3019.480865 2354.950152,3023.527141 2354.475712,3127.870932"/>
    <poly id="1015411676#1" type="sport" color="79,230,125" fill="1" layer="-2.00" shape="2354.475712,3127.870932 2434.340470,3125.646419 2434.916069,3019.480865 2354.950152,3023.527141 2354.475712,3127.870932"/>
    <poly id="1015411677" type="building" color="255,230,230" fill="1" layer="-1.00" shape="2278.679733,3280.059714 2278.840065,3267.884250 2275.689850,3264.554834 2269.477818,3262.121661 2217.748819,3263.204032 2217.706223,3241.335061 2278.826895,3239.479237 2278.873028,3229.780529 2277.279044,3225.009387 2274.644057,3222.501378 2270.297721,3221.516012 2223.043717,3222.249516 2222.275269,3201.394360 2277.483800,3199.085279 2277.690778,3189.139099 2277.118458,3185.589316 2274.390046,3182.583949 2269.454060,3181.189276 2226.700724,3181.917359 2226.003194,3160.483738 2276.562539,3159.015374 2276.361611,3149.410602 2275.535031,3145.610933 2272.730595,3142.940031 2267.877794,3141.554714 2207.810773,3142.223456 2209.141944,3184.237659 2205.684710,3184.310010 2206.590897,3223.204088 2202.149306,3223.396903 2202.755423,3281.004821 2278.679733,3280.059714"/>
    <poly id="1015411678" type="amenity" color="237,199,199" fill="1" layer="-1.00" shape="2421.297959,3440.185542 2418.638356,3404.290727 2399.225900,3405.717404 2401.895028,3441.623115 2421.297959,3440.185542"/>
    <poly id="1015411678#1" type="building" color="255,230,230" fill="1" layer="-1.00" shape="2421.297959,3440.185542 2418.638356,3404.290727 2399.225900,3405.717404 2401.895028,3441.623115 2421.297959,3440.185542"/>
    <poly id="1015411679" type="building" color="255,230,230" fill="1" layer="-1.00" shape="2533.061493,3300.184085 2532.429181,3278.749122 2475.225355,3280.443783 2475.867248,3301.889647 2533.061493,3300.184085"/>
    <poly id="1015411680" type="amenity" color="237,199,199" fill="1" layer="-1.00" shape="2919.598477,3325.103694 2918.083729,3279.442913 2876.671895,3279.895992 2877.915394,3326.250375 2919.598477,3325.103694"/>
    <poly id="1015411681" type="building" color="255,230,230" fill="1" layer="-1.00" shape="2992.563135,3110.077882 2992.248282,3094.972022 2938.287230,3096.085797 2938.602402,3111.202750 2992.563135,3110.077882"/>
    <poly id="1015411682" type="residential" color="235,235,227" fill="1" layer="-3.00" shape="2842.682254,3379.268580 2605.603204,3382.386475 2598.182018,3058.855083 2834.273310,3055.747051 2842.682254,3379.268580"/>
    <poly id="1015411683" type="amenity" color="237,199,199" fill="1" layer="-1.00" shape="2092.665661,2900.359169 2094.132767,2823.290152 2027.348438,2822.180972 2019.746822,2826.523309 2015.075591,2837.339718 2015.415767,2873.837871 2043.555997,2874.224938 2044.251279,2900.818172 2092.665661,2900.359169"/>
    <poly id="1015411683#1" type="building" color="255,230,230" fill="1" layer="-1.00" shape="2092.665661,2900.359169 2094.132767,2823.290152 2027.348438,2822.180972 2019.746822,2826.523309 2015.075591,2837.339718 2015.415767,2873.837871 2043.555997,2874.224938 2044.251279,2900.818172 2092.665661,2900.359169"/>
    <poly id="1015411685" type="building" color="255,230,230" fill="1" layer="-1.00" shape="1801.339910,2878.046815 1800.975672,2849.238540 1774.369024,2848.975373 1774.505413,2877.910485 1801.339910,2878.046815"/>
    <poly id="1015411686" type="tourism" color="207,245,201" fill="1" layer="-2.00" shape="2115.234386,3350.521461 2068.107250,3404.846011 1887.103801,3249.113604 1938.692717,3193.363143 2115.234386,3350.521461"/>
    <poly id="1015411687" type="building" color="255,230,230" fill="1" layer="-1.00" shape="2167.790587,3452.423742 2170.732765,3445.815615 2170.966764,3437.167067 2168.195131,3431.654980 2163.592317,3425.903830 2156.799117,3422.140307 2170.168351,3399.025230 2132.030365,3368.611067 2121.686125,3369.249287 2088.532085,3409.921798 2145.941616,3458.173849 2150.998423,3459.177566 2155.631781,3459.779604 2162.988385,3456.973696 2167.790587,3452.423742"/>
    <poly id="1015411688" type="building" color="255,230,230" fill="1" layer="-1.00" shape="1867.116272,3130.729365 1844.539801,3101.809762 1803.377296,3134.440252 1826.083666,3162.513752 1867.116272,3130.729365"/>
    <poly id="1015411689" type="amenity" color="237,199,199" fill="1" layer="-1.00" shape="2122.582173,3283.415381 2108.622655,3271.735261 2099.471686,3282.234897 2113.301740,3294.339357 2122.582173,3283.415381"/>
    <poly id="1015411690" type="building" color="255,230,230" fill="1" layer="-1.00" shape="2003.845603,3139.170764 2003.605197,3129.455848 1995.160966,3129.666033 1995.055089,3125.052383 1977.078735,3125.495568 1977.188495,3129.853932 1960.677792,3130.255346 1960.562912,3125.652980 1943.618891,3126.063503 1943.739125,3130.920961 1935.184261,3131.133518 1935.425203,3140.870617 2003.845603,3139.170764"/>
    <poly id="1015411691" type="building" color="255,230,230" fill="1" layer="-1.00" shape="2071.331319,3139.965352 2071.137401,3129.383991 2022.189542,3130.298191 2022.393199,3140.901542 2071.331319,3139.965352"/>
    <poly id="1015436318" type="building" color="255,230,230" fill="1" layer="-1.00" shape="1933.416238,3108.823546 1932.826355,3089.917500 1905.247734,3090.772866 1905.837672,3109.678912 1933.416238,3108.823546"/>
    <poly id="1015436319" type="building" color="255,230,230" fill="1" layer="-1.00" shape="2003.341108,3106.282181 2003.062061,3094.282334 1965.577421,3095.134221 1965.856748,3107.145161 2003.341108,3106.282181"/>
    <poly id="1015436320" type="building" color="255,230,230" fill="1" layer="-1.00" shape="2074.163492,3105.198288 2074.042195,3093.239525 2016.666161,3093.819828 2016.787764,3105.789685 2074.163492,3105.198288"/>
    <poly id="1015436321" type="building" color="255,230,230" fill="1" layer="-1.00" shape="2002.561990,3071.291145 2002.430530,3059.732039 1956.628363,3060.247785 1956.760344,3071.829074 2002.561990,3071.291145"/>
    <poly id="1015436322" type="building" color="255,230,230" fill="1" layer="-1.00" shape="2077.916076,3066.373074 2077.693514,3055.304098 2013.801745,3056.586733 2014.024847,3067.677893 2077.916076,3066.373074"/>
    <poly id="1015436323" type="building" color="255,230,230" fill="1" layer="-1.00" shape="1894.660283,3064.420227 1894.071179,3045.114713 1867.026917,3045.947886 1867.615844,3065.242310 1894.660283,3064.420227"/>
    <poly id="1015436324" type="building" color="255,230,230" fill="1" layer="-1.00" shape="1995.006709,3030.283871 1994.862455,3019.435168 1936.712051,3020.498175 1936.944460,3031.589144 1995.006709,3030.283871"/>
    <poly id="1015436325" type="building" color="255,230,230" fill="1" layer="-1.00" shape="2082.328163,3027.767068 2082.041305,3016.710535 2009.832464,3018.566787 2010.110420,3029.634606 2082.328163,3027.767068"/>
    <poly id="1015436326" type="building" color="255,230,230" fill="1" layer="-1.00" shape="2009.304458,2995.121258 2008.935789,2983.245344 1939.323622,2985.347316 1939.683392,2997.234515 2009.304458,2995.121258"/>
    <poly id="1015436327" type="building" color="255,230,230" fill="1" layer="-1.00" shape="2084.410672,2991.551067 2084.322538,2980.734482 2022.147734,2981.226559 2022.236171,2992.054238 2084.410672,2991.551067"/>
    <poly id="1015436328" type="building" color="255,230,230" fill="1" layer="-1.00" shape="2182.718008,2998.747049 2182.627384,2981.195360 2128.320195,2980.800855 2128.972679,2998.751333 2182.718008,2998.747049"/>
    <poly id="1015436329" type="building" color="255,230,230" fill="1" layer="-1.00" shape="2176.078423,3042.880933 2176.003984,3033.595289 2169.502654,3033.653690 2169.434544,3025.111334 2153.646669,3025.242064 2153.708293,3033.473873 2120.334079,3033.739778 2120.405854,3043.336164 2176.078423,3042.880933"/>
    <poly id="1015436330" type="building" color="255,230,230" fill="1" layer="-1.00" shape="2169.437923,3089.611270 2169.363706,3080.336716 2162.862176,3080.384032 2162.794056,3071.841675 2147.006259,3071.972420 2147.067892,3080.204231 2113.693842,3080.470167 2113.765861,3090.077644 2169.437923,3089.611270"/>
    <poly id="1015436331" type="building" color="255,230,230" fill="1" layer="-1.00" shape="2163.820356,3134.533780 2163.746131,3125.259226 2157.244631,3125.306547 2157.176503,3116.764190 2141.379561,3116.895140 2141.450422,3125.126759 2108.067311,3125.392915 2108.148558,3135.000200 2163.820356,3134.533780"/>
    <poly id="1015436332" type="building" color="255,230,230" fill="1" layer="-1.00" shape="2161.303087,3193.172418 2161.074645,3182.258910 2109.547770,3183.326520 2109.776737,3194.262212 2161.303087,3193.172418"/>
    <poly id="1015436333" type="building" color="255,230,230" fill="1" layer="-1.00" shape="2064.552484,3243.919912 2064.305200,3231.231458 2055.998422,3231.394333 2055.811826,3222.044454 2041.973483,3222.323192 2041.757836,3211.586942 2032.962651,3211.771161 2032.783699,3202.787283 2021.416326,3203.025390 2021.212114,3193.276428 2011.135197,3193.476419 2010.930975,3183.727458 1996.530196,3184.018042 1996.844410,3199.456864 2006.828896,3199.247697 2007.018950,3208.320110 2017.289456,3208.116058 2017.466100,3216.989026 2027.441347,3216.780074 2027.609386,3225.242676 2041.374203,3224.976552 2041.582491,3235.801724 2051.272153,3235.609873 2051.442494,3244.183385 2064.552484,3243.919912"/>
    <poly id="1015436334" type="building" color="255,230,230" fill="1" layer="-1.00" shape="2170.125128,2886.676538 2170.542461,2873.563643 2098.958002,2871.811023 2098.945338,2885.303809 2170.125128,2886.676538"/>
    <poly id="1015436335" type="building" color="255,230,230" fill="1" layer="-1.00" shape="2167.834234,2919.124274 2167.975102,2906.904829 2099.070840,2905.395718 2099.237393,2918.196811 2167.834234,2919.124274"/>
    <poly id="1015436336" type="building" color="255,230,230" fill="1" layer="-1.00" shape="2190.427921,2948.898623 2194.141518,2899.366854 2179.585775,2898.883664 2176.861064,2934.402921 2158.342065,2933.614360 2158.033205,2947.501695 2190.427921,2948.898623"/>
    <poly id="1015436337" type="residential" color="235,235,227" fill="1" layer="-3.00" shape="2204.556894,2772.068543 2208.185124,2684.502147 2124.198779,2683.896406 2122.540927,2771.699035 2204.556894,2772.068543"/>
    <poly id="1015436338" type="building" color="255,230,230" fill="1" layer="-1.00" shape="2197.048263,2769.840061 2197.055642,2761.817633 2191.032389,2761.810524 2191.048920,2753.344072 2174.464214,2753.324974 2174.453139,2761.169947 2159.814732,2761.154527 2159.827354,2752.943359 2142.670557,2752.914099 2142.654766,2761.413826 2135.921128,2761.399429 2135.901862,2769.732792 2197.048263,2769.840061"/>
    <poly id="1015436339" type="building" color="255,230,230" fill="1" layer="-1.00" shape="2197.429056,2713.543033 2197.743182,2700.343539 2134.276863,2698.709189 2134.264358,2712.213060 2197.429056,2713.543033"/>
    <poly id="1015436340" type="amenity" color="237,199,199" fill="1" layer="-1.00" shape="2356.091348,2801.964462 2360.521834,2695.352144 2256.574515,2690.735356 2249.189756,2783.495458 2256.970563,2797.413269 2356.091348,2801.964462"/>
    <poly id="1015436341" type="leisure" color="207,245,201" fill="1" layer="-2.00" shape="2265.918410,2722.051993 2348.287552,2725.622080 2349.968844,2698.834951 2266.892968,2695.002222 2265.918410,2722.051993"/>
    <poly id="1015436342" type="leisure" color="207,245,201" fill="1" layer="-2.00" shape="2285.304619,2718.861451 2327.331104,2720.767583 2328.109419,2704.174179 2286.215358,2701.987874 2285.304619,2718.861451"/>
    <poly id="1015436342#1" type="sport" color="79,230,125" fill="1" layer="-2.00" shape="2285.304619,2718.861451 2327.331104,2720.767583 2328.109419,2704.174179 2286.215358,2701.987874 2285.304619,2718.861451"/>
    <poly id="1015436343" type="residential" color="235,235,227" fill="1" layer="-3.00" shape="2351.972237,3009.031713 2276.059763,3012.849651 2275.735169,3003.946504 2214.023886,3004.538586 2229.832197,2856.822112 2355.466768,2855.026551 2351.972237,3009.031713"/>
    <poly id="1015436344" type="building" color="255,230,230" fill="1" layer="-1.00" shape="2280.550687,2873.026171 2280.345718,2862.345194 2234.098561,2863.234996 2234.303582,2873.915974 2280.550687,2873.026171"/>
    <poly id="1015436345" type="building" color="255,230,230" fill="1" layer="-1.00" shape="2346.477259,2873.722319 2346.272711,2863.940097 2299.833358,2864.900169 2300.038418,2874.704574 2346.477259,2873.722319"/>
    <poly id="1015436346" type="building" color="255,230,230" fill="1" layer="-1.00" shape="2276.818359,2913.748192 2276.334276,2898.102130 2231.139779,2899.480346 2231.624170,2915.137499 2276.818359,2913.748192"/>
    <poly id="1015436347" type="building" color="255,230,230" fill="1" layer="-1.00" shape="2350.330771,2914.651833 2350.061057,2901.753052 2291.507617,2902.977587 2291.777412,2915.876370 2350.330771,2914.651833"/>
    <poly id="1015436348" type="building" color="255,230,230" fill="1" layer="-1.00" shape="2349.897250,2956.114823 2349.329321,2941.746536 2302.217213,2943.597259 2302.785215,2957.965546 2349.897250,2956.114823"/>
    <poly id="1015436349" type="building" color="255,230,230" fill="1" layer="-1.00" shape="2272.544425,2951.064039 2272.216438,2937.589490 2225.633168,2938.708304 2225.952234,2952.194139 2272.544425,2951.064039"/>
    <poly id="1015436350" type="building" color="255,230,230" fill="1" layer="-1.00" shape="2261.408350,2989.266865 2261.106673,2976.169022 2221.547453,2977.074354 2221.839966,2990.172392 2261.408350,2989.266865"/>
    <poly id="1015436351" type="building" color="255,230,230" fill="1" layer="-1.00" shape="2349.634343,2994.267699 2349.306117,2979.894399 2288.432405,2981.289558 2288.760724,2995.662861 2349.634343,2994.267699"/>
    <poly id="1015436360" type="building" color="255,230,230" fill="1" layer="-1.00" shape="2906.497162,3110.818066 2906.262958,3097.374884 2840.976607,3098.536755 2841.220356,3111.990839 2906.497162,3110.818066"/>
    <poly id="1015436361" type="building" color="255,230,230" fill="1" layer="-1.00" shape="2991.395211,3146.085768 2991.065750,3133.376896 2915.853753,3135.344326 2916.183085,3148.042109 2991.395211,3146.085768"/>