<?xml version="1.0" encoding="UTF-8"?>

<!-- generated on 06/22/23 19:50:16 by Eclipse SUMO netconvert Version 1.8.0
<configuration xmlns:xsi="http://www.w3.org/2001/XMLSchema-instance" xsi:noNamespaceSchemaLocation="http://sumo.dlr.de/xsd/netconvertConfiguration.xsd">

    <input>
        <osm-files value="map.osm"/>
    </input>

    <output>
        <output-file value="map.net.xml"/>
    </output>

    <projection>
        <proj.utm value="true"/>
    </projection>

    <report>
        <aggregate-warnings value="5"/>
    </report>

</configuration>
-->

<net version="1.6" junctionCornerDetail="5" limitTurnSpeed="5.50" xmlns:xsi="http://www.w3.org/2001/XMLSchema-instance" xsi:noNamespaceSchemaLocation="http://sumo.dlr.de/xsd/net_file.xsd">

    <location netOffset="-301074.12,-3779303.30" convBoundary="0.00,0.00,7983.91,5713.65" origBoundary="108.791241,34.136263,108.929077,34.187592" projParameter="+proj=utm +zone=49 +ellps=WGS84 +datum=WGS84 +units=m +no_defs"/>

    <type id="highway.bridleway" priority="1" numLanes="1" speed="2.78" allow="pedestrian" oneway="1" width="2.00"/>
    <type id="highway.bus_guideway" priority="1" numLanes="1" speed="27.78" allow="bus" oneway="1"/>
    <type id="highway.cycleway" priority="1" numLanes="1" speed="8.33" allow="bicycle" oneway="0" width="1.00"/>
    <type id="highway.footway" priority="1" numLanes="1" speed="2.78" allow="pedestrian" oneway="1" width="2.00"/>
    <type id="highway.ford" priority="1" numLanes="1" speed="2.78" allow="army" oneway="0"/>
    <type id="highway.living_street" priority="2" numLanes="1" speed="2.78" disallow="tram rail_urban rail rail_electric rail_fast ship" oneway="0"/>
    <type id="highway.motorway" priority="14" numLanes="2" speed="39.44" allow="private emergency authority army vip passenger hov taxi bus coach delivery truck trailer motorcycle evehicle custom1 custom2" oneway="1"/>
    <type id="highway.motorway_link" priority="9" numLanes="1" speed="22.22" allow="private emergency authority army vip passenger hov taxi bus coach delivery truck trailer motorcycle evehicle custom1 custom2" oneway="1"/>
    <type id="highway.path" priority="1" numLanes="1" speed="2.78" allow="pedestrian bicycle" oneway="0" width="2.00"/>
    <type id="highway.pedestrian" priority="1" numLanes="1" speed="2.78" allow="pedestrian" oneway="1" width="2.00"/>
    <type id="highway.primary" priority="12" numLanes="2" speed="27.78" disallow="tram rail_urban rail rail_electric rail_fast ship" oneway="0"/>
    <type id="highway.primary_link" priority="7" numLanes="1" speed="22.22" disallow="tram rail_urban rail rail_electric rail_fast ship" oneway="0"/>
    <type id="highway.raceway" priority="15" numLanes="2" speed="83.33" allow="vip" oneway="0"/>
    <type id="highway.residential" priority="3" numLanes="1" speed="13.89" disallow="tram rail_urban rail rail_electric rail_fast ship" oneway="0"/>
    <type id="highway.secondary" priority="11" numLanes="1" speed="27.78" disallow="tram rail_urban rail rail_electric rail_fast ship" oneway="0"/>
    <type id="highway.secondary_link" priority="6" numLanes="1" speed="22.22" disallow="tram rail_urban rail rail_electric rail_fast ship" oneway="0"/>
    <type id="highway.service" priority="1" numLanes="1" speed="5.56" allow="pedestrian delivery bicycle" oneway="0"/>
    <type id="highway.stairs" priority="1" numLanes="1" speed="1.39" allow="pedestrian" oneway="1" width="2.00"/>
    <type id="highway.step" priority="1" numLanes="1" speed="1.39" allow="pedestrian" oneway="1" width="2.00"/>
    <type id="highway.steps" priority="1" numLanes="1" speed="1.39" allow="pedestrian" oneway="1" width="2.00"/>
    <type id="highway.tertiary" priority="10" numLanes="1" speed="22.22" disallow="tram rail_urban rail rail_electric rail_fast ship" oneway="0"/>
    <type id="highway.tertiary_link" priority="5" numLanes="1" speed="22.22" disallow="tram rail_urban rail rail_electric rail_fast ship" oneway="0"/>
    <type id="highway.track" priority="1" numLanes="1" speed="5.56" allow="pedestrian motorcycle moped bicycle" oneway="0"/>
    <type id="highway.trunk" priority="13" numLanes="2" speed="27.78" disallow="pedestrian bicycle tram rail_urban rail rail_electric rail_fast ship" oneway="0"/>
    <type id="highway.trunk_link" priority="8" numLanes="1" speed="22.22" disallow="pedestrian bicycle tram rail_urban rail rail_electric rail_fast ship" oneway="0"/>
    <type id="highway.unclassified" priority="4" numLanes="1" speed="13.89" disallow="tram rail_urban rail rail_electric rail_fast ship" oneway="0"/>
    <type id="highway.unsurfaced" priority="1" numLanes="1" speed="8.33" disallow="tram rail_urban rail rail_electric rail_fast ship" oneway="0"/>
    <type id="railway.highspeed" priority="21" numLanes="1" speed="69.44" allow="rail_fast" oneway="1"/>
    <type id="railway.light_rail" priority="19" numLanes="1" speed="27.78" allow="rail_urban" oneway="1"/>
    <type id="railway.preserved" priority="16" numLanes="1" speed="27.78" allow="rail" oneway="1"/>
    <type id="railway.rail" priority="20" numLanes="1" speed="44.44" allow="rail" oneway="1"/>
    <type id="railway.subway" priority="18" numLanes="1" speed="27.78" allow="rail_urban" oneway="1"/>
    <type id="railway.tram" priority="17" numLanes="1" speed="13.89" allow="tram" oneway="1"/>

    <edge id=":1078996119_0" function="internal">
        <lane id=":1078996119_0_0" index="0" disallow="tram rail_urban rail rail_electric rail_fast ship" speed="27.78" length="0.29" shape="5342.51,4002.49 5342.54,4002.80"/>
        <lane id=":1078996119_0_1" index="1" disallow="tram rail_urban rail rail_electric rail_fast ship" speed="27.78" length="0.29" shape="5339.32,4002.77 5339.35,4003.04"/>
    </edge>
    <edge id=":10827969239_0" function="internal">
        <lane id=":10827969239_0_0" index="0" disallow="tram rail_urban rail rail_electric rail_fast ship" speed="3.65" length="4.67" shape="4690.71,1291.96 4691.46,1290.73 4692.24,1290.30 4693.06,1290.66 4693.91,1291.83"/>
    </edge>
    <edge id=":10827969288_0" function="internal">
        <lane id=":10827969288_0_0" index="0" disallow="tram rail_urban rail rail_electric rail_fast ship" speed="6.45" length="7.98" shape="5557.24,1936.83 5556.56,1935.51 5555.18,1934.64 5553.11,1934.23 5550.36,1934.28"/>
    </edge>
    <edge id=":10827969288_1" function="internal">
        <lane id=":10827969288_1_0" index="0" disallow="tram rail_urban rail rail_electric rail_fast ship" speed="22.22" length="12.23" shape="5557.24,1936.83 5554.62,1924.89"/>
    </edge>
    <edge id=":10827969288_2" function="internal">
        <lane id=":10827969288_2_0" index="0" disallow="tram rail_urban rail rail_electric rail_fast ship" speed="3.65" length="2.34" shape="5557.24,1936.83 5557.77,1935.49 5558.46,1934.93"/>
    </edge>
    <edge id=":10827969288_9" function="internal">
        <lane id=":10827969288_9_0" index="0" disallow="tram rail_urban rail rail_electric rail_fast ship" speed="3.65" length="2.34" shape="5558.46,1934.93 5559.33,1935.15 5560.37,1936.15"/>
    </edge>
    <edge id=":10827969288_3" function="internal">
        <lane id=":10827969288_3_0" index="0" disallow="tram rail_urban rail rail_electric rail_fast ship" speed="22.22" length="12.23" shape="5557.74,1924.21 5560.37,1936.15"/>
    </edge>
    <edge id=":10827969288_4" function="internal">
        <lane id=":10827969288_4_0" index="0" disallow="tram rail_urban rail rail_electric rail_fast ship" speed="7.79" length="5.97" shape="5557.74,1924.21 5558.04,1928.30 5557.39,1930.05"/>
    </edge>
    <edge id=":10827969288_5" function="internal">
        <lane id=":10827969288_5_0" index="0" disallow="tram rail_urban rail rail_electric rail_fast ship" speed="3.65" length="2.34" shape="5557.74,1924.21 5557.22,1925.55 5556.52,1926.11"/>
    </edge>
    <edge id=":10827969288_10" function="internal">
        <lane id=":10827969288_10_0" index="0" disallow="tram rail_urban rail rail_electric rail_fast ship" speed="7.79" length="8.72" shape="5557.39,1930.05 5556.91,1931.34 5554.35,1933.33 5550.36,1934.28"/>
    </edge>
    <edge id=":10827969288_11" function="internal">
        <lane id=":10827969288_11_0" index="0" disallow="tram rail_urban rail rail_electric rail_fast ship" speed="3.65" length="2.34" shape="5556.52,1926.11 5555.66,1925.89 5554.62,1924.89"/>
    </edge>
    <edge id=":10827969288_6" function="internal">
        <lane id=":10827969288_6_0" index="0" disallow="tram rail_urban rail rail_electric rail_fast ship" speed="6.25" length="9.05" shape="5550.07,1931.09 5552.53,1930.51 5554.10,1929.28 5554.80,1927.41 5554.62,1924.89"/>
    </edge>
    <edge id=":10827969288_7" function="internal">
        <lane id=":10827969288_7_0" index="0" disallow="tram rail_urban rail rail_electric rail_fast ship" speed="7.95" length="12.63" shape="5550.07,1931.09 5554.09,1931.11 5557.15,1931.95 5559.24,1933.63 5560.37,1936.15"/>
    </edge>
    <edge id=":10827969288_8" function="internal">
        <lane id=":10827969288_8_0" index="0" disallow="tram rail_urban rail rail_electric rail_fast ship" speed="3.65" length="4.67" shape="5550.07,1931.09 5551.34,1931.78 5551.81,1932.54 5551.48,1933.38 5550.36,1934.28"/>
    </edge>
    <edge id=":10827969289_0" function="internal">
        <lane id=":10827969289_0_0" index="0" disallow="tram rail_urban rail rail_electric rail_fast ship" speed="6.98" length="9.63" shape="5777.28,1944.53 5776.59,1942.18 5775.22,1940.51 5773.16,1939.54 5770.43,1939.24"/>
    </edge>
    <edge id=":10827969289_1" function="internal">
        <lane id=":10827969289_1_0" index="0" disallow="tram rail_urban rail rail_electric rail_fast ship" speed="27.78" length="14.44" shape="5777.28,1944.53 5775.43,1930.21"/>
    </edge>
    <edge id=":10827969289_2" function="internal">
        <lane id=":10827969289_2_0" index="0" disallow="tram rail_urban rail rail_electric rail_fast ship" speed="3.65" length="2.34" shape="5777.28,1944.53 5777.92,1943.24 5778.66,1942.74"/>
    </edge>
    <edge id=":10827969289_9" function="internal">
        <lane id=":10827969289_9_0" index="0" disallow="tram rail_urban rail rail_electric rail_fast ship" speed="3.65" length="2.34" shape="5778.66,1942.74 5779.51,1943.03 5780.45,1944.12"/>
    </edge>
    <edge id=":10827969289_3" function="internal">
        <lane id=":10827969289_3_0" index="0" disallow="tram rail_urban rail rail_electric rail_fast ship" speed="27.78" length="14.44" shape="5778.60,1929.80 5780.45,1944.12"/>
    </edge>
    <edge id=":10827969289_4" function="internal">
        <lane id=":10827969289_4_0" index="0" disallow="tram rail_urban rail rail_electric rail_fast ship" speed="7.81" length="5.97" shape="5778.60,1929.80 5778.54,1933.87 5777.73,1935.58"/>
    </edge>
    <edge id=":10827969289_5" function="internal">
        <lane id=":10827969289_5_0" index="0" disallow="tram rail_urban rail rail_electric rail_fast ship" speed="3.65" length="2.34" shape="5778.60,1929.80 5777.96,1931.09 5777.22,1931.59"/>
    </edge>
    <edge id=":10827969289_10" function="internal">
        <lane id=":10827969289_10_0" index="0" disallow="tram rail_urban rail rail_electric rail_fast ship" speed="7.81" length="8.67" shape="5777.73,1935.58 5777.16,1936.81 5774.45,1938.60 5770.43,1939.24"/>
    </edge>
    <edge id=":10827969289_11" function="internal">
        <lane id=":10827969289_11_0" index="0" disallow="tram rail_urban rail rail_electric rail_fast ship" speed="3.65" length="2.34" shape="5777.22,1931.59 5776.37,1931.29 5775.43,1930.21"/>
    </edge>
    <edge id=":10827969289_6" function="internal">
        <lane id=":10827969289_6_0" index="0" disallow="tram rail_urban rail rail_electric rail_fast ship" speed="6.28" length="9.04" shape="5770.38,1936.04 5772.87,1935.64 5774.54,1934.54 5775.39,1932.73 5775.43,1930.21"/>
    </edge>
    <edge id=":10827969289_7" function="internal">
        <lane id=":10827969289_7_0" index="0" disallow="tram rail_urban rail rail_electric rail_fast ship" speed="8.40" length="14.38" shape="5770.38,1936.04 5774.39,1936.49 5777.40,1937.99 5779.42,1940.53 5780.45,1944.12"/>
    </edge>
    <edge id=":10827969289_8" function="internal">
        <lane id=":10827969289_8_0" index="0" disallow="tram rail_urban rail rail_electric rail_fast ship" speed="3.65" length="4.67" shape="5770.38,1936.04 5771.59,1936.82 5772.00,1937.62 5771.62,1938.42 5770.43,1939.24"/>
    </edge>
    <edge id=":10827969290_0" function="internal">
        <lane id=":10827969290_0_0" index="0" disallow="tram rail_urban rail rail_electric rail_fast ship" speed="7.00" length="9.66" shape="5747.33,1712.52 5746.65,1710.17 5745.27,1708.50 5743.22,1707.51 5740.47,1707.19"/>
    </edge>
    <edge id=":10827969290_1" function="internal">
        <lane id=":10827969290_1_0" index="0" disallow="tram rail_urban rail rail_electric rail_fast ship" speed="27.78" length="14.44" shape="5747.33,1712.52 5745.51,1698.19"/>
    </edge>
    <edge id=":10827969290_2" function="internal">
        <lane id=":10827969290_2_0" index="0" disallow="tram rail_urban rail rail_electric rail_fast ship" speed="3.65" length="2.34" shape="5747.33,1712.52 5747.97,1711.23 5748.72,1710.73"/>
    </edge>
    <edge id=":10827969290_9" function="internal">
        <lane id=":10827969290_9_0" index="0" disallow="tram rail_urban rail rail_electric rail_fast ship" speed="3.65" length="2.34" shape="5748.72,1710.73 5749.56,1711.03 5750.50,1712.12"/>
    </edge>
    <edge id=":10827969290_3" function="internal">
        <lane id=":10827969290_3_0" index="0" disallow="tram rail_urban rail rail_electric rail_fast ship" speed="27.78" length="14.44" shape="5748.69,1697.79 5750.50,1712.12"/>
    </edge>
    <edge id=":10827969290_4" function="internal">
        <lane id=":10827969290_4_0" index="0" disallow="tram rail_urban rail rail_electric rail_fast ship" speed="7.80" length="5.97" shape="5748.69,1697.79 5748.62,1701.87 5747.81,1703.58"/>
    </edge>
    <edge id=":10827969290_5" function="internal">
        <lane id=":10827969290_5_0" index="0" disallow="tram rail_urban rail rail_electric rail_fast ship" speed="3.65" length="2.34" shape="5748.69,1697.79 5748.05,1699.08 5747.30,1699.58"/>
    </edge>
    <edge id=":10827969290_10" function="internal">
        <lane id=":10827969290_10_0" index="0" disallow="tram rail_urban rail rail_electric rail_fast ship" speed="7.80" length="8.69" shape="5747.81,1703.58 5747.22,1704.80 5744.51,1706.58 5740.47,1707.19"/>
    </edge>
    <edge id=":10827969290_11" function="internal">
        <lane id=":10827969290_11_0" index="0" disallow="tram rail_urban rail rail_electric rail_fast ship" speed="3.65" length="2.34" shape="5747.30,1699.58 5746.46,1699.28 5745.51,1698.19"/>
    </edge>
    <edge id=":10827969290_6" function="internal">
        <lane id=":10827969290_6_0" index="0" disallow="tram rail_urban rail rail_electric rail_fast ship" speed="6.27" length="9.04" shape="5740.44,1704.00 5742.94,1703.61 5744.61,1702.52 5745.47,1700.71 5745.51,1698.19"/>
    </edge>
    <edge id=":10827969290_7" function="internal">
        <lane id=":10827969290_7_0" index="0" disallow="tram rail_urban rail rail_electric rail_fast ship" speed="8.42" length="14.39" shape="5740.44,1704.00 5744.46,1704.47 5747.47,1705.99 5749.49,1708.54 5750.50,1712.12"/>
    </edge>
    <edge id=":10827969290_8" function="internal">
        <lane id=":10827969290_8_0" index="0" disallow="tram rail_urban rail rail_electric rail_fast ship" speed="3.65" length="4.67" shape="5740.44,1704.00 5741.65,1704.78 5742.06,1705.58 5741.66,1706.38 5740.47,1707.19"/>
    </edge>
    <edge id=":10827969291_0" function="internal">
        <lane id=":10827969291_0_0" index="0" disallow="tram rail_urban rail rail_electric rail_fast ship" speed="7.30" length="10.02" shape="5468.25,1515.23 5467.34,1512.45 5465.93,1510.48 5464.02,1509.32 5461.60,1508.97"/>
    </edge>
    <edge id=":10827969291_1" function="internal">
        <lane id=":10827969291_1_0" index="0" disallow="tram rail_urban rail rail_electric rail_fast ship" speed="3.65" length="4.67" shape="5468.25,1515.23 5468.79,1513.89 5469.49,1513.34 5470.36,1513.57 5471.38,1514.58"/>
    </edge>
    <edge id=":10827969291_2" function="internal">
        <lane id=":10827969291_2_0" index="0" disallow="tram rail_urban rail rail_electric rail_fast ship" speed="6.15" length="9.06" shape="5476.10,1508.65 5473.59,1509.07 5471.96,1510.20 5471.23,1512.04 5471.38,1514.58"/>
    </edge>
    <edge id=":10827969291_3" function="internal">
        <lane id=":10827969291_3_0" index="0" disallow="tram rail_urban rail rail_electric rail_fast ship" speed="27.78" length="14.51" shape="5476.10,1508.65 5461.60,1508.97"/>
        <lane id=":10827969291_3_1" index="1" disallow="tram rail_urban rail rail_electric rail_fast ship" speed="27.78" length="14.51" shape="5476.03,1505.45 5461.53,1505.77"/>
    </edge>
    <edge id=":10827969293_0" function="internal">
        <lane id=":10827969293_0_0" index="0" disallow="tram rail_urban rail rail_electric rail_fast ship" speed="22.22" length="14.62" shape="5508.62,1715.67 5505.60,1701.37"/>
    </edge>
    <edge id=":10827969293_1" function="internal">
        <lane id=":10827969293_1_0" index="0" disallow="tram rail_urban rail rail_electric rail_fast ship" speed="7.68" length="6.13" shape="5508.62,1715.67 5508.31,1711.43 5508.99,1709.69"/>
    </edge>
    <edge id=":10827969293_2" function="internal">
        <lane id=":10827969293_2_0" index="0" disallow="tram rail_urban rail rail_electric rail_fast ship" speed="3.65" length="2.34" shape="5508.62,1715.67 5509.14,1714.33 5509.84,1713.77"/>
    </edge>
    <edge id=":10827969293_9" function="internal">
        <lane id=":10827969293_9_0" index="0" disallow="tram rail_urban rail rail_electric rail_fast ship" speed="7.68" length="8.92" shape="5508.99,1709.69 5509.50,1708.39 5512.20,1706.54 5516.41,1705.90"/>
    </edge>
    <edge id=":10827969293_10" function="internal">
        <lane id=":10827969293_10_0" index="0" disallow="tram rail_urban rail rail_electric rail_fast ship" speed="3.65" length="2.34" shape="5509.84,1713.77 5510.70,1713.99 5511.74,1714.99"/>
    </edge>
    <edge id=":10827969293_3" function="internal">
        <lane id=":10827969293_3_0" index="0" disallow="tram rail_urban rail rail_electric rail_fast ship" speed="6.10" length="9.06" shape="5516.43,1709.10 5513.90,1709.49 5512.27,1710.60 5511.56,1712.43 5511.74,1714.99"/>
    </edge>
    <edge id=":10827969293_4" function="internal">
        <lane id=":10827969293_4_0" index="0" disallow="tram rail_urban rail rail_electric rail_fast ship" speed="8.73" length="14.61" shape="5516.43,1709.10 5512.28,1708.65 5509.09,1707.21 5506.86,1704.78 5505.60,1701.37"/>
    </edge>
    <edge id=":10827969293_5" function="internal">
        <lane id=":10827969293_5_0" index="0" disallow="tram rail_urban rail rail_electric rail_fast ship" speed="3.65" length="4.67" shape="5516.43,1709.10 5515.23,1708.31 5514.82,1707.52 5515.21,1706.71 5516.41,1705.90"/>
    </edge>
    <edge id=":10827969293_6" function="internal">
        <lane id=":10827969293_6_0" index="0" disallow="tram rail_urban rail rail_electric rail_fast ship" speed="7.36" length="10.13" shape="5508.74,1700.74 5509.61,1703.02 5511.18,1704.64 5513.44,1705.60 5516.41,1705.90"/>
    </edge>
    <edge id=":10827969293_7" function="internal">
        <lane id=":10827969293_7_0" index="0" disallow="tram rail_urban rail rail_electric rail_fast ship" speed="22.22" length="14.56" shape="5508.74,1700.74 5511.74,1714.99"/>
    </edge>
    <edge id=":10827969293_8" function="internal">
        <lane id=":10827969293_8_0" index="0" disallow="tram rail_urban rail rail_electric rail_fast ship" speed="3.65" length="2.34" shape="5508.74,1700.74 5508.19,1702.07 5507.48,1702.62"/>
    </edge>
    <edge id=":10827969293_11" function="internal">
        <lane id=":10827969293_11_0" index="0" disallow="tram rail_urban rail rail_electric rail_fast ship" speed="3.65" length="2.34" shape="5507.48,1702.62 5506.62,1702.39 5505.60,1701.37"/>
    </edge>
    <edge id=":10827969294_0" function="internal">
        <lane id=":10827969294_0_0" index="0" disallow="tram rail_urban rail rail_electric rail_fast ship" speed="22.22" length="12.27" shape="5559.87,1949.03 5557.29,1937.03"/>
    </edge>
    <edge id=":10827969294_1" function="internal">
        <lane id=":10827969294_1_0" index="0" disallow="tram rail_urban rail rail_electric rail_fast ship" speed="7.70" length="6.00" shape="5559.87,1949.03 5559.59,1944.81 5560.24,1943.16"/>
    </edge>
    <edge id=":10827969294_2" function="internal">
        <lane id=":10827969294_2_0" index="0" disallow="tram rail_urban rail rail_electric rail_fast ship" speed="3.65" length="2.34" shape="5559.87,1949.03 5560.41,1947.68 5561.10,1947.13"/>
    </edge>
    <edge id=":10827969294_9" function="internal">
        <lane id=":10827969294_9_0" index="0" disallow="tram rail_urban rail rail_electric rail_fast ship" speed="7.70" length="8.98" shape="5560.24,1943.16 5560.79,1941.77 5563.48,1939.92 5567.66,1939.25"/>
    </edge>
    <edge id=":10827969294_10" function="internal">
        <lane id=":10827969294_10_0" index="0" disallow="tram rail_urban rail rail_electric rail_fast ship" speed="3.65" length="2.34" shape="5561.10,1947.13 5561.97,1947.35 5563.00,1948.36"/>
    </edge>
    <edge id=":10827969294_3" function="internal">
        <lane id=":10827969294_3_0" index="0" disallow="tram rail_urban rail rail_electric rail_fast ship" speed="6.13" length="9.06" shape="5567.71,1942.45 5565.18,1942.85 5563.56,1943.97 5562.83,1945.81 5563.00,1948.36"/>
    </edge>
    <edge id=":10827969294_4" function="internal">
        <lane id=":10827969294_4_0" index="0" disallow="tram rail_urban rail rail_electric rail_fast ship" speed="8.23" length="12.75" shape="5567.71,1942.45 5563.61,1942.16 5560.50,1941.17 5558.40,1939.46 5557.29,1937.03"/>
    </edge>
    <edge id=":10827969294_5" function="internal">
        <lane id=":10827969294_5_0" index="0" disallow="tram rail_urban rail rail_electric rail_fast ship" speed="3.65" length="4.67" shape="5567.71,1942.45 5566.50,1941.67 5566.08,1940.87 5566.47,1940.07 5567.66,1939.25"/>
    </edge>
    <edge id=":10827969294_6" function="internal">
        <lane id=":10827969294_6_0" index="0" disallow="tram rail_urban rail rail_electric rail_fast ship" speed="6.78" length="8.37" shape="5560.41,1936.34 5561.11,1937.65 5562.55,1938.57 5564.74,1939.11 5567.66,1939.25"/>
    </edge>
    <edge id=":10827969294_7" function="internal">
        <lane id=":10827969294_7_0" index="0" disallow="tram rail_urban rail rail_electric rail_fast ship" speed="22.22" length="12.29" shape="5560.41,1936.34 5563.00,1948.36"/>
    </edge>
    <edge id=":10827969294_8" function="internal">
        <lane id=":10827969294_8_0" index="0" disallow="tram rail_urban rail rail_electric rail_fast ship" speed="3.65" length="2.34" shape="5560.41,1936.34 5559.89,1937.69 5559.19,1938.25"/>
    </edge>
    <edge id=":10827969294_11" function="internal">
        <lane id=":10827969294_11_0" index="0" disallow="tram rail_urban rail rail_electric rail_fast ship" speed="3.65" length="2.34" shape="5559.19,1938.25 5558.33,1938.03 5557.29,1937.03"/>
    </edge>
    <edge id=":10827969307_0" function="internal">
        <lane id=":10827969307_0_0" index="0" disallow="tram rail_urban rail rail_electric rail_fast ship" speed="7.14" length="9.56" shape="5723.27,1513.52 5722.87,1511.12 5721.75,1509.27 5719.90,1507.95 5717.32,1507.18"/>
    </edge>
    <edge id=":10827969307_1" function="internal">
        <lane id=":10827969307_1_0" index="0" disallow="tram rail_urban rail rail_electric rail_fast ship" speed="27.78" length="14.19" shape="5723.27,1513.52 5723.30,1509.90 5723.46,1506.43 5723.76,1502.97 5724.20,1499.37"/>
    </edge>
    <edge id=":10827969307_2" function="internal">
        <lane id=":10827969307_2_0" index="0" disallow="tram rail_urban rail rail_electric rail_fast ship" speed="3.65" length="2.34" shape="5723.27,1513.52 5724.05,1512.31 5724.85,1511.90"/>
    </edge>
    <edge id=":10827969307_9" function="internal">
        <lane id=":10827969307_9_0" index="0" disallow="tram rail_urban rail rail_electric rail_fast ship" speed="3.65" length="2.34" shape="5724.85,1511.90 5725.65,1512.29 5726.47,1513.49"/>
    </edge>
    <edge id=":10827969307_3" function="internal">
        <lane id=":10827969307_3_0" index="0" disallow="tram rail_urban rail rail_electric rail_fast ship" speed="6.09" length="9.23" shape="5732.29,1508.63 5729.72,1508.41 5727.89,1509.14 5726.81,1510.83 5726.47,1513.49"/>
    </edge>
    <edge id=":10827969307_4" function="internal">
        <lane id=":10827969307_4_0" index="0" disallow="tram rail_urban rail rail_electric rail_fast ship" speed="27.78" length="15.14" shape="5732.29,1508.63 5717.86,1504.02"/>
    </edge>
    <edge id=":10827969307_5" function="internal">
        <lane id=":10827969307_5_0" index="0" disallow="tram rail_urban rail rail_electric rail_fast ship" speed="8.16" length="13.67" shape="5732.29,1508.63 5728.39,1507.24 5725.74,1505.23 5724.34,1502.61 5724.20,1499.37"/>
    </edge>
    <edge id=":10827969307_6" function="internal">
        <lane id=":10827969307_6_0" index="0" disallow="tram rail_urban rail rail_electric rail_fast ship" speed="27.78" length="13.72" shape="5727.37,1499.81 5726.94,1503.33 5726.65,1506.63 5726.49,1509.94 5726.47,1513.49"/>
    </edge>
    <edge id=":10827969307_7" function="internal">
        <lane id=":10827969307_7_0" index="0" disallow="tram rail_urban rail rail_electric rail_fast ship" speed="7.26" length="4.01" shape="5727.37,1499.81 5726.48,1502.21 5725.36,1503.11"/>
    </edge>
    <edge id=":10827969307_8" function="internal">
        <lane id=":10827969307_8_0" index="0" disallow="tram rail_urban rail rail_electric rail_fast ship" speed="3.65" length="2.34" shape="5727.37,1499.81 5726.42,1500.89 5725.57,1501.17"/>
    </edge>
    <edge id=":10827969307_10" function="internal">
        <lane id=":10827969307_10_0" index="0" disallow="tram rail_urban rail rail_electric rail_fast ship" speed="7.26" length="7.78" shape="5725.36,1503.11 5724.60,1503.72 5721.73,1504.32 5717.86,1504.02"/>
    </edge>
    <edge id=":10827969307_11" function="internal">
        <lane id=":10827969307_11_0" index="0" disallow="tram rail_urban rail rail_electric rail_fast ship" speed="3.65" length="2.34" shape="5725.57,1501.17 5724.83,1500.67 5724.20,1499.37"/>
    </edge>
    <edge id=":10827969351_0" function="internal">
        <lane id=":10827969351_0_0" index="0" disallow="tram rail_urban rail rail_electric rail_fast ship" speed="27.78" length="11.25" shape="5720.57,1492.10 5723.93,1492.19 5726.26,1492.78 5728.46,1493.68 5731.40,1494.69"/>
    </edge>
    <edge id=":10827969351_1" function="internal">
        <lane id=":10827969351_1_0" index="0" disallow="tram rail_urban rail rail_electric rail_fast ship" speed="6.07" length="8.85" shape="5720.75,1495.30 5723.91,1495.37 5726.08,1496.00 5727.28,1497.18 5727.49,1498.91"/>
    </edge>
    <edge id=":10827969351_2" function="internal">
        <lane id=":10827969351_2_0" index="0" disallow="tram rail_urban rail rail_electric rail_fast ship" speed="6.35" length="9.44" shape="5724.32,1498.48 5725.05,1496.17 5726.47,1494.76 5728.59,1494.27 5731.40,1494.69"/>
    </edge>
    <edge id=":10827969351_3" function="internal">
        <lane id=":10827969351_3_0" index="0" disallow="tram rail_urban rail rail_electric rail_fast ship" speed="3.65" length="4.67" shape="5724.32,1498.48 5725.28,1497.40 5726.12,1497.11 5726.86,1497.62 5727.49,1498.91"/>
    </edge>
    <edge id=":1504839834_0" function="internal">
        <lane id=":1504839834_0_0" index="0" disallow="tram rail_urban rail rail_electric rail_fast ship" speed="27.78" length="8.01" shape="1949.16,3566.32 1949.40,3557.92"/>
        <lane id=":1504839834_0_1" index="1" disallow="tram rail_urban rail rail_electric rail_fast ship" speed="27.78" length="8.01" shape="1952.36,3566.31 1952.59,3558.10"/>
        <lane id=":1504839834_0_2" index="2" disallow="tram rail_urban rail rail_electric rail_fast ship" speed="27.78" length="8.01" shape="1955.56,3566.29 1955.79,3558.29"/>
        <lane id=":1504839834_0_3" index="3" disallow="tram rail_urban rail rail_electric rail_fast ship" speed="27.78" length="8.01" shape="1958.76,3566.28 1958.98,3558.47"/>
        <lane id=":1504839834_0_4" index="4" disallow="tram rail_urban rail rail_electric rail_fast ship" speed="27.78" length="8.01" shape="1961.96,3566.26 1962.18,3558.66"/>
    </edge>
    <edge id=":1504839834_5" function="internal">
        <lane id=":1504839834_5_0" index="0" disallow="tram rail_urban rail rail_electric rail_fast ship" speed="6.05" length="7.21" shape="1943.76,3561.21 1946.16,3560.96 1947.90,3560.33 1948.98,3559.32 1949.40,3557.92"/>
    </edge>
    <edge id=":1504839834_6" function="internal">
        <lane id=":1504839834_6_0" index="0" disallow="tram rail_urban rail rail_electric rail_fast ship" speed="7.63" length="12.04" shape="1943.83,3564.41 1947.53,3563.95 1950.22,3562.74 1951.91,3560.79 1952.59,3558.10"/>
    </edge>
    <edge id=":1504839834_7" function="internal">
        <lane id=":1504839834_7_0" index="0" disallow="tram rail_urban rail rail_electric rail_fast ship" speed="8.38" length="14.70" shape="1943.83,3564.41 1948.93,3563.94 1952.63,3562.76 1954.91,3560.87 1955.79,3558.29"/>
    </edge>
    <edge id=":1615501592_0" function="internal">
        <lane id=":1615501592_0_0" index="0" disallow="tram rail_urban rail rail_electric rail_fast ship" speed="27.78" length="0.28" shape="5340.64,3981.47 5340.66,3981.72"/>
        <lane id=":1615501592_0_1" index="1" disallow="tram rail_urban rail rail_electric rail_fast ship" speed="27.78" length="0.28" shape="5337.44,3981.69 5337.47,3982.00"/>
    </edge>
    <edge id=":1619747581_0" function="internal">