<?xml version="1.0" encoding="UTF-8"?>
<!-- generated on 2023-06-22 19:54:47.094968 by $Id$ v1_8_0+0044-4820708f3d
  options: -n map.net.xml -r map.rou.xml -e 100 -l
-->
<routes xmlns:xsi="http://www.w3.org/2001/XMLSchema-instance" xsi:noNamespaceSchemaLocation="http://sumo.dlr.de/xsd/routes_file.xsd">
    <trip id="0" depart="0.00" from="334648167#1" to="-230059778#0"/>
    <trip id="1" depart="1.00" from="1016165564#4" to="1015385206#7"/>
    <trip id="2" depart="2.00" from="550169292#7" to="335531746#4"/>
    <trip id="3" depart="3.00" from="764285488#0" to="-275396955#1"/>
    <trip id="4" depart="4.00" from="230059778#2" to="-230060559#0"/>
    <trip id="5" depart="5.00" from="1015385205#5" to="257221751#3"/>
    <trip id="6" depart="6.00" from="-158798932#6" to="1015248028#1"/>
    <trip id="7" depart="7.00" from="334971101#0" to="257222262#1"/>
    <trip id="8" depart="8.00" from="1015385205#5" to="28257723#1"/>
    <trip id="9" depart="9.00" from="569646608#1" to="-158798928#0"/>
    <trip id="10" depart="10.00" from="569646608#0" to="343657663#0"/>
    <trip id="11" depart="11.00" from="1164266871" to="-93087729#1"/>
    <trip id="12" depart="12.00" from="768807505#1" to="148910933#2"/>
    <trip id="13" depart="13.00" from="-273400145#0" to="-288599170#1"/>
    <trip id="14" depart="14.00" from="764285469#2" to="288599170#1"/>
    <trip id="15" depart="15.00" from="569646608#1" to="550169292#11"/>
    <trip id="16" depart="16.00" from="257222261#2" to="768807509#2"/>
    <trip id="17" depart="17.00" from="158798927#11" to="264413377#1"/>
    <trip id="18" depart="18.00" from="764282265#0" to="295180935#0"/>
    <trip id="19" depart="19.00" from="764285479#0" to="275396956#1"/>
    <trip id="20" depart="20.00" from="374650191" to="-230161692#6"/>
    <trip id="21" depart="21.00" from="1015385206#3" to="1016489530#0"/>
    <trip id="22" depart="22.00" from="-271676616#1" to="1015712065#4"/>
    <trip id="23" depart="23.00" from="-275396955#0" to="1016489501#4"/>
    <trip id="24" depart="24.00" from="318889175#1" to="158798927#10"/>
    <trip id="25" depart="25.00" from="158798927#0" to="1015385205#4"/>
    <trip id="26" depart="26.00" from="1016165560#1" to="764286725#3"/>
    <trip id="27" depart="27.00" from="334971100#4" to="295108306#3"/>
    <trip id="28" depart="28.00" from="-806562145" to="550169292#11"/>
    <trip id="29" depart="29.00" from="-697870758#1" to="158798929#2"/>
    <trip id="30" depart="30.00" from="768807530#1" to="318889175#2"/>
    <trip id="31" depart="31.00" from="273400139#1" to="335531756#1"/>
    <trip id="32" depart="32.00" from="764282265#9" to="550169297#0"/>
    <trip id="33" depart="33.00" from="1015411684#0" to="-230060559#6"/>
    <trip id="34" depart="34.00" from="1164266867" to="1016165594#0"/>
    <trip id="35" depart="35.00" from="1015385205#0" to="768807497#1"/>
    <trip id="36" depart="36.00" from="764285483#3" to="1164266870"/>
    <trip id="37" depart="37.00" from="334971101#4" to="158798932#3"/>
    <trip id="38" depart="38.00" from="764285495" to="230162177#2"/>
    <trip id="39" depart="39.00" from="1016165560#1" to="1016165553#1"/>
    <trip id="40" depart="40.00" from="273400146#2" to="1016165564#5"/>
    <trip id="41" depart="41.00" from="28257724#3" to="764285488#3"/>
    <trip id="42" depart="42.00" from="158798931#4" to="1015385206#3"/>
    <trip id="43" depart="43.00" from="93087729#4" to="257221751#3"/>
    <trip id="44" depart="44.00" from="-273400143#1" to="-230161692#6"/>
    <trip id="45" depart="45.00" from="-287806874#3" to="318889175#1"/>
    <trip id="46" depart="46.00" from="550169299#2" to="230059778#0"/>
    <trip id="47" depart="47.00" from="-257222261#1" to="158798931#0"/>
    <trip id="48" depart="48.00" from="93087729#3" to="257222260#0"/>
    <trip id="49" depart="49.00" from="768807512#0" to="764285469#6"/>
    <trip id="50" depart="50.00" from="-158798932#1" to="422152375#1"/>
    <trip id="51" depart="51.00" from="335531756#10" to="257222261#1"/>
    <trip id="52" depart="52.00" from="1016165560#1" to="318889175#2"/>
    <trip id="53" depart="53.00" from="-288599170#1" to="230061209#3"/>
    <trip id="54" depart="54.00" from="230162177#5" to="768807505#1"/>
    <trip id="55" depart="55.00" from="764285483#3" to="1016165564#5"/>
    <trip id="56" depart="56.00" from="257221751#4" to="1013535604"/>
    <trip id="57" depart="57.00" from="764285495" to="764285471#2"/>
    <trip id="58" depart="58.00" from="1016489501#5" to="318889175#2"/>
    <trip id="59" depart="59.00" from="318889165#0" to="-806562145"/>
    <trip id="60" depart="60.00" from="550169296#6" to="257222261#2"/>
    <trip id="61" depart="61.00" from="550169298#0" to="257222260#0"/>
    <trip id="62" depart="62.00" from="-1017031415" to="1164266870"/>
    <trip id="63" depart="63.00" from="-158798932#5" to="764286719#3"/>
    <trip id="64" depart="64.00" from="764285483#4" to="764285465#1"/>
    <trip id="65" depart="65.00" from="1016489530#2" to="-257222261#2"/>
    <trip id="66" depart="66.00" from="764285483#3" to="768807497#3"/>
    <trip id="67" depart="67.00" from="-271676618" to="230164319#0"/>
    <trip id="68" depart="68.00" from="-257222261#3" to="550169295#3"/>
    <trip id="69" depart="69.00" from="550169296#9" to="-374650190"/>
    <trip id="70" depart="70.00" from="230164319#1" to="264413377#1"/>
    <trip id="71" depart="71.00" from="1016165560#1" to="764285471#5"/>
    <trip id="72" depart="72.00" from="230059778#2" to="1015385205#5"/>
    <trip id="73" depart="73.00" from="257222261#4" to="550169292#11"/>
    <trip id="74" depart="74.00" from="1015248028#0" to="1164266870"/>
    <trip id="75" depart="75.00" from="93087729#2" to="334971100#2"/>
    <trip id="76" depart="76.00" from="230061209#4" to="257221751#6"/>
    <trip id="77" depart="77.00" from="-295108308" to="1015385206#7"/>
    <trip id="78" depart="78.00" from="1164266871" to="28257723#1"/>
    <trip id="79" depart="79.00" from="1015411684#0" to="1015385206#3"/>
    <trip id="80" depart="80.00" from="-257222261#4" to="318889175#2"/>
    <trip id="81" depart="81.00" from="1015411684#0" to="764285489#1"/>
    <trip id="82" depart="82.00" from="764285471#5" to="-271676617#0"/>
    <trip id="83" depart="83.00" from="1015712065#0" to="334971102#3"/>
    <trip id="84" depart="84.00" from="1015385205#0" to="-382880385"/>
    <trip id="85" depart="85.00" from="764286724#1" to="273400149"/>
    <trip id="86" depart="86.00" from="230164319#0" to="550169298#0"/>
    <trip id="87" depart="87.00" from="569646608#1" to="1014488831#1"/>
    <trip id="88" depart="88.00" from="-273400149" to="230060559#7"/>
    <trip id="89" depart="89.00" from="230059778#2" to="230162177#9"/>
    <trip id="90" depart="90.00" from="550169292#6" to="335531746#1"/>
    <trip id="91" depart="91.00" from="768807530#0" to="-288599170#1"/>
    <trip id="92" depart="92.00" from="158798931#6" to="148910933#3"/>
    <trip id="93" depart="93.00" from="764285479#0" to="1016165559#1"/>
    <trip id="94" depart="94.00" from="1014514160" to="230161692#2"/>
    <trip id="95" depart="95.00" from="230059778#2" to="1016489501#4"/>
    <trip id="96" depart="96.00" from="1016165551#0" to="764286718#0"/>
    <trip id="97" depart="97.00" from="230161692#4" to="764285469#6"/>
    <trip id="98" depart="98.00" from="271676616#1" to="-230164323#1"/>
    <trip id="99" depart="99.00" from="93087729#4" to="764285465#1"/>
</routes>
